
#======================================================================
# CRYSTAL DATA
#----------------------------------------------------------------------
data_VESTA_phase_1

_chemical_name_common                  'RIO13'
_cell_length_a                         15.053000
_cell_length_b                         15.053000
_cell_length_c                         3.614600
_cell_angle_alpha                      90.000000
_cell_angle_beta                       90.000000
_cell_angle_gamma                      120.000000
_cell_volume                           709.311528
_space_group_name_H-M_alt              'P 1'
_space_group_IT_number                 1

loop_
_space_group_symop_operation_xyz
   'x, y, z'

loop_
   _atom_site_type_symbol
   _atom_site_label
   _atom_site_fract_x
   _atom_site_fract_y
   _atom_site_fract_z
   _atom_site_charge 
   H  H   0.333333     0.432940     0.500000       0.03650
   H  H   0.666667     0.567060     0.500000       0.03650
   H  H   0.567060     0.900393     0.500000       0.03649
   H  H   0.432940     0.099607     0.500000       0.03649
   H  H   0.099607     0.666667     0.500000       0.03649
   H  H   0.900393     0.333333     0.500000       0.03649
   H  H   0.117770     0.456170     0.500000       0.33464
   H  H   0.882230     0.543830     0.500000       0.33464
   H  H   0.543830     0.661600     0.500000       0.33465
   H  H   0.456170     0.338400     0.500000       0.33465
   H  H   0.338400     0.882230     0.500000       0.33464
   H  H   0.661600     0.117770     0.500000       0.33464
   C  C   0.226810     0.636100     0.500000      -0.04058
   C  C   0.773190     0.363900     0.500000      -0.04058
   C  C   0.363900     0.590710     0.500000      -0.04057
   C  C   0.636100     0.409290     0.500000      -0.04057
   C  C   0.409290     0.773190     0.500000      -0.04059
   C  C   0.590710     0.226810     0.500000      -0.04059
   C  C   0.258500     0.561550     0.500000       0.18622
   C  C   0.741500     0.438450     0.500000       0.18622
   C  C   0.438450     0.696950     0.500000       0.18623
   C  C   0.561550     0.303050     0.500000       0.18623
   C  C   0.303050     0.741500     0.500000       0.18624
   C  C   0.696950     0.258500     0.500000       0.18624
   C  C   0.393300     0.513910     0.500000       0.07740
   C  C   0.606700     0.486090     0.500000       0.07740
   C  C   0.486090     0.879390     0.500000       0.07741
   C  C   0.513910     0.120610     0.500000       0.07741
   C  C   0.120610     0.606700     0.500000       0.07741
   C  C   0.879390     0.393300     0.500000       0.07741
   N  N   0.460040     0.950380     0.500000      -0.21352
   N  N   0.539960     0.049620     0.500000      -0.21352
   N  N   0.049620     0.509660     0.500000      -0.21352
   N  N   0.950380     0.490340     0.500000      -0.21352
   N  N   0.490340     0.539960     0.500000      -0.21352
   N  N   0.509660     0.460040     0.500000      -0.21352
   O  O   0.189220     0.461920     0.500000      -0.38067
   O  O   0.810780     0.538080     0.500000      -0.38067
   O  O   0.538080     0.727300     0.500000      -0.38067
   O  O   0.461920     0.272700     0.500000      -0.38067
   O  O   0.272700     0.810780     0.500000      -0.38067
   O  O   0.727300     0.189220     0.500000      -0.38067
